[TITLE]

[JUNCTIONS]
 2                                     0.0000
 3                                     0.0000
 4                                     0.0000
 5                                     0.0000
 6                                     0.0000
 7                                     0.0000
 8                                     0.0000
 9                                     0.0000
 10                                    0.0000
 11                                    0.0000
 12                                    0.0000
 13                                    0.0000
 14                                    0.0000
 15                                    0.0000
 16                                    0.0000
 17                                    0.0000
 18                                    0.0000
 19                                    0.0000
 20                                    0.0000
 21                                    0.0000
 22                                    0.0000
 23                                    0.0000
 24                                    0.0000
 25                                    0.0000
 26                                    0.0000
 27                                    0.0000
 28                                    0.0000
 29                                    0.0000
 30                                    0.0000
 31                                    0.0000
 32                                    0.0000

[RESERVOIRS]
 1                                   100.0000 

[TANKS]

[PIPES]
 1                               1                               2                                   100.0000    1016.0000     130.0000       0.0000 
 2                               2                               3                                  1350.0000    1016.0000     130.0000       0.0000 
 3                               3                               4                                   900.0000    1016.0000     130.0000       0.0000 
 4                               4                               5                                  1150.0000    1016.0000     130.0000       0.0000 
 5                               5                               6                                  1450.0000    1016.0000     130.0000       0.0000 
 6                               6                               7                                   450.0000    1016.0000     130.0000       0.0000 
 7                               7                               8                                   850.0000    1016.0000     130.0000       0.0000 
 8                               8                               9                                   850.0000    1016.0000     130.0000       0.0000 
 9                               9                               10                                  800.0000    1016.0000     130.0000       0.0000 
 10                              10                              11                                  950.0000    1016.0000     130.0000       0.0000 
 11                              11                              12                                 1200.0000    1016.0000     130.0000       0.0000 
 12                              12                              13                                 3500.0000     609.6000     130.0000       0.0000 
 13                              10                              14                                  800.0000     609.6000     130.0000       0.0000 
 14                              14                              15                                  500.0000     609.6000     130.0000       0.0000 
 15                              15                              16                                  550.0000     609.6000     130.0000       0.0000 
 16                              16                              17                                 2730.0000     304.8000     130.0000       0.0000 
 17                              17                              18                                 1750.0000     406.4000     130.0000       0.0000 
 18                              18                              19                                  800.0000     508.0000     130.0000       0.0000 
 19                              19                              3                                   400.0000     508.0000     130.0000       0.0000 
 20                              3                               20                                 2200.0000    1016.0000     130.0000       0.0000 
 21                              20                              21                                 1500.0000     508.0000     130.0000       0.0000 
 22                              21                              22                                  500.0000     304.8000     130.0000       0.0000 
 23                              20                              23                                 2650.0000    1016.0000     130.0000       0.0000 
 24                              23                              24                                 1230.0000     762.0000     130.0000       0.0000 
 25                              24                              25                                 1300.0000     609.6000     130.0000       0.0000 
 26                              25                              26                                  850.0000     406.4000     130.0000       0.0000 
 27                              26                              27                                  300.0000     508.0000     130.0000       0.0000 
 28                              27                              16                                  750.0000     609.6000     130.0000       0.0000 
 29                              23                              28                                 1500.0000     406.4000     130.0000       0.0000 
 30                              28                              29                                 2000.0000     304.8000     130.0000       0.0000 
 31                              29                              30                                 1600.0000     304.8000     130.0000       0.0000 
 32                              30                              31                                  150.0000     406.4000     130.0000       0.0000 
 33                              31                              32                                  860.0000     406.4000     130.0000       0.0000 
 34                              32                              25                                  950.0000     609.6000     130.0000       0.0000 

[PUMPS]

[VALVES]

[DEMANDS]
 2                                   247.222000 
 3                                   236.111000 
 4                                    36.111000 
 5                                   201.389000 
 6                                   279.167000 
 7                                   375.000000 
 8                                   152.778000 
 9                                   145.833000 
 10                                  145.833000 
 11                                  138.889000 
 12                                  155.556000 
 13                                  261.111000 
 14                                  170.833000 
 15                                   77.780000 
 16                                   86.111000 
 17                                  240.278000 
 18                                  373.611000 
 19                                   16.667000 
 20                                  354.167000 
 21                                  258.333000 
 22                                  134.722000 
 23                                  290.278000 
 24                                  227.778000 
 25                                   47.222000 
 26                                  250.000000 
 27                                  102.778000 
 28                                   80.556000 
 29                                  100.000000 
 30                                  100.000000 
 31                                   29.167000 
 32                                  223.611000 

[EMITTERS]

[STATUS]

[PATTERNS]

[CURVES]

[CONTROLS]

[QUALITY]

[SOURCES]

[MIXING]

[REACTIONS]
 ORDER  BULK            1.00
 ORDER  WALL            1
 ORDER  TANK            1.00
 GLOBAL BULK            0.000000
 GLOBAL WALL            0.000000

[ENERGY]
 GLOBAL EFFIC        75.0000
 DEMAND CHARGE       0.0000

[TIMES]
 DURATION            0:00:00
 HYDRAULIC TIMESTEP  1:00:00
 QUALITY TIMESTEP    0:05:00
 REPORT TIMESTEP     1:00:00
 REPORT START        0:00:00
 PATTERN TIMESTEP    1:00:00
 PATTERN START       0:00:00
 RULE TIMESTEP       0:06:00
 START CLOCKTIME     0:00:00
 STATISTIC           NONE

[OPTIONS]
 UNITS               LPS
 PRESSURE            METERS
 HEADLOSS            H-W
 UNBALANCED          CONTINUE 10
 QUALITY             NONE
 DEMAND MULTIPLIER   1.0000
 EMITTER EXPONENT    0.5000
 VISCOSITY           1.000000
 DIFFUSIVITY         1.000000
 SPECIFIC GRAVITY    1.000000
 TRIALS              40
 ACCURACY            0.00100000
 TOLERANCE           0.01000000
 CHECKFREQ           10
 MAXCHECK            10
 DAMPLIMIT           0.00000000

[REPORT]
 PAGESIZE            0
 STATUS              NO
 SUMMARY             NO
 ENERGY              NO
 MESSAGES            YES
 NODES               NONE
 LINKS               NONE
 Elevation           NO
 Demand              PRECISION 2
 Head                PRECISION 2
 Pressure            PRECISION 2
 Quality             NO
 Length              NO
 Diameter            NO
 Flow                PRECISION 2
 Velocity            PRECISION 2
 Headloss            PRECISION 2
 Quality             NO
 State               NO
 Setting             NO
 Reaction            NO



[COORDINATES]
 2                                  5542.370000    2711.860000
 3                                  5440.680000    3677.970000
 4                                  6440.680000    3711.860000
 5                                  7440.680000    3711.860000
 6                                  8491.530000    3745.760000
 7                                  8457.630000    4559.320000
 8                                  8423.730000    5610.170000
 9                                  8372.880000    6576.270000
 10                                 7406.780000    6610.170000
 11                                 7372.880000    7474.580000
 12                                 7372.880000    8288.140000
 13                                 5610.170000    8288.140000
 14                                 6508.470000    6542.370000
 15                                 5966.100000    6508.470000
 16                                 5406.780000    6474.580000
 17                                 5322.030000    5677.970000
 18                                 5355.930000    5050.850000
 19                                 5372.880000    4474.580000
 20                                 4355.930000    3644.070000
 21                                 4406.780000    2711.860000
 22                                 4406.780000    2152.540000
 23                                 3389.830000    3593.220000
 24                                 3423.730000    5186.440000
 25                                 3440.680000    6406.780000
 26                                 4118.640000    6440.680000
 27                                 4728.810000    6474.580000
 28                                 2474.580000    3559.320000
 29                                 1254.240000    3559.320000
 30                                 1237.290000    5796.610000
 31                                 1186.440000    6389.830000
 32                                 2440.680000    6440.680000
 1                                  6355.930000    2355.930000

[TAGS]

[VERTICES]
;Link            	X-Coord         	Y-Coord

[LABELS]
;X-Coord           Y-Coord          Label & Anchor Node

[BACKDROP]
 DIMENSIONS     	0.00            	0.00            	10000.00        	10000.00        
 UNITS          	None
 FILE           	
 OFFSET         	0.00            	0.00            


[END]